<?xml version="1.0" encoding="UTF-8"?>

<!-- generated on 2025-04-16 14:26:57 by Eclipse SUMO netedit Version 1.22.0
-->

<routes xmlns:xsi="http://www.w3.org/2001/XMLSchema-instance" xsi:noNamespaceSchemaLocation="http://sumo.dlr.de/xsd/routes_file.xsd">
    <!-- VTypes -->
    <vType id="Car" vClass="passenger" sigma="0.5" length="5.0" maxSpeed="50.0" guiShape="passenger"/>
    <vType  id="Bus" vClass="bus" sigma="0.5" length="12.0" maxSpeed="50.0" guiShape="bus"/>
    

    <flow id="car_flow_1" begin="0" end="3600" number="500" from="E1" to="E2" type="Car" color="1,0,0" departLane="free"/>
    <flow id="car_flow_2" begin="0" end="3600" number="300" from="E0" to="E2" type="Car" color="0,0,1" departLane="free"/>

    <flow id="bus_flow_1" begin="0" end="3600" number="10" from="E0" to="E2" type="Bus" color="1,1,0" departLane="free">
        <stop busStop="bs_0" duration="10"/>
    </flow>

    <flow id="bus_flow_2" begin="0" end="3600" number="10" from="E1" to="E2" type="Bus" color="1,1,0" departLane="free">
        <stop busStop="bs_0" duration="10"/>
    </flow>
</routes>
