<?xml version="1.0" encoding="UTF-8"?>


<routes xmlns:xsi="http://www.w3.org/2001/XMLSchema-instance" xsi:noNamespaceSchemaLocation="http://sumo.dlr.de/xsd/routes_file.xsd">
<!--    your xml code goes here-->
	<vType id="Car" accel="2.7" decel="4.5" sigma="0.5"  maxSpeed="70" vClass="passenger"/>

    <route id="route_1" edges="E0 E2"/>
    <route id="route_2" edges="E1 E2"/>

    <!-- <vehicle id="veh_1" type="Car" route="route_1" depart="10" color="0,1,0"/>
    <vehicle id="veh_2" type="Car" route="route_2" depart="20" color="0,0,1"/> -->

    <flow id="flow_1" begin="50" end="1000" number="500" route="route_1" type="Car" color="0,1,0" departLane="free"/>
    <flow id="flow_2" begin="200" end="1500" number="600" route="route_2" type="Car" color="0,0,1" departLane="best"/>
	
</routes>