<?xml version="1.0" encoding="UTF-8"?>

<!-- generated on 2025-04-18 07:22:24 by Eclipse SUMO netedit Version 1.22.0
-->

<routes xmlns:xsi="http://www.w3.org/2001/XMLSchema-instance" xsi:noNamespaceSchemaLocation="http://sumo.dlr.de/xsd/routes_file.xsd">
    <!-- Vehicles, persons and containers (sorted by depart) -->
    <personFlow id="pf_0" begin="0.00" end="3600.00" personsPerHour="900" color="0,0,1">
        <personTrip from="E1" to="-E0"/>
    </personFlow>

    <personFlow id="pf_2" begin="0.00" end="3600.00" personsPerHour="400" color="1,0,1">
        <personTrip from="E1" to="-E2"/>
    </personFlow>
</routes>
