<?xml version="1.0" encoding="UTF-8"?>

<!-- generated on 2025-03-17 14:00:37 by Eclipse SUMO netedit Version 1.22.0
<neteditConfiguration xmlns:xsi="http://www.w3.org/2001/XMLSchema-instance" xsi:noNamespaceSchemaLocation="http://sumo.dlr.de/xsd/neteditConfiguration.xsd">

    <input>
        <sumocfg-file value="D:\KnowMaga\1_basics\run_simulation.sumocfg"/>
        <sumo-net-file value="D:\KnowMaga\1_basics\network\network.net.xml"/>
    </input>

    <output>
        <tls-file value="D:\KnowMaga\1_basics\additional\signal_timing.tll.xml"/>
        <output-file value="D:\KnowMaga\1_basics\network\network.net.xml"/>
    </output>

    <processing>
        <geometry.min-radius.fix.railways value="false"/>
        <geometry.max-grade.fix value="false"/>
        <offset.disable-normalization value="true"/>
        <lefthand value="0"/>
    </processing>

    <junctions>
        <no-turnarounds value="true"/>
        <junctions.corner-detail value="5"/>
        <junctions.limit-turn-speed value="5.50"/>
        <rectangular-lane-cut value="0"/>
    </junctions>

    <pedestrian>
        <walkingareas value="0"/>
    </pedestrian>

</neteditConfiguration>
-->

<net version="1.20" junctionCornerDetail="5" limitTurnSpeed="5.50" xmlns:xsi="http://www.w3.org/2001/XMLSchema-instance" xsi:noNamespaceSchemaLocation="http://sumo.dlr.de/xsd/net_file.xsd">

    <location netOffset="0.00,0.00" convBoundary="-73.42,-34.73,109.28,28.92" origBoundary="-10000000000.00,-10000000000.00,10000000000.00,10000000000.00" projParameter="!"/>

    <edge id=":J1_0" function="internal">
        <lane id=":J1_0_0" index="0" speed="13.73" length="10.94" shape="-15.68,-4.11 -13.25,-2.34 -11.57,-0.99 -9.75,-0.13 -6.90,0.18"/>
        <lane id=":J1_0_1" index="1" speed="13.89" length="10.94" shape="-17.38,-1.40 -14.50,0.64 -12.47,2.14 -10.28,3.06 -6.89,3.38"/>
    </edge>
    <edge id=":J1_2" function="internal">
        <lane id=":J1_2_0" index="0" speed="13.89" length="10.71" shape="-17.77,2.79 -14.66,1.52 -12.48,0.72 -10.22,0.30 -6.90,0.18"/>
        <lane id=":J1_2_1" index="1" speed="13.89" length="10.71" shape="-16.60,5.77 -13.82,4.62 -11.88,3.89 -9.86,3.49 -6.89,3.38"/>
    </edge>

    <edge id="E0" from="J0" to="J1" priority="-1">
        <lane id="E0_0" index="0" speed="13.89" length="59.00" shape="-72.65,24.46 -17.77,2.79"/>
        <lane id="E0_1" index="1" speed="13.89" length="59.00" shape="-71.48,27.43 -16.60,5.77"/>
    </edge>
    <edge id="E1" from="J2" to="J1" priority="-1">
        <lane id="E1_0" index="0" speed="13.89" length="65.18" shape="-70.87,-38.79 -15.68,-4.11"/>
        <lane id="E1_1" index="1" speed="13.89" length="65.18" shape="-72.57,-36.08 -17.38,-1.40"/>
    </edge>
    <edge id="E2" from="J1" to="J3" priority="-1">
        <lane id="E2_0" index="0" speed="13.89" length="116.17" shape="-6.90,0.18 109.28,0.08"/>
        <lane id="E2_1" index="1" speed="13.89" length="116.17" shape="-6.89,3.38 109.28,3.28"/>
    </edge>

    <tlLogic id="J1" type="static" programID="0" offset="0">
        <phase duration="42" state="GGrr"/>
        <phase duration="3"  state="yyrr"/>
        <phase duration="42" state="rrGG"/>
        <phase duration="3"  state="rryy"/>
    </tlLogic>

    <junction id="J0" type="dead_end" x="-70.89" y="28.92" incLanes="" intLanes="" shape="-70.89,28.92 -73.24,22.97"/>
    <junction id="J1" type="traffic_light" x="-10.24" y="4.98" incLanes="E1_0 E1_1 E0_0 E0_1" intLanes=":J1_0_0 :J1_0_1 :J1_2_0 :J1_2_1" shape="-6.89,4.98 -6.90,-1.42 -10.09,-1.94 -11.12,-2.55 -12.09,-3.36 -13.24,-4.34 -14.83,-5.46 -18.23,-0.04 -17.68,0.46 -17.63,0.69 -17.73,0.91 -17.97,1.11 -18.36,1.30 -16.01,7.26 -14.14,6.49 -12.75,5.90 -11.57,5.47 -10.37,5.19 -8.90,5.03">
        <request index="0" response="0000" foes="1100" cont="0"/>
        <request index="1" response="0000" foes="1100" cont="0"/>
        <request index="2" response="0011" foes="0011" cont="0"/>
        <request index="3" response="0011" foes="0011" cont="0"/>
    </junction>
    <junction id="J2" type="dead_end" x="-73.42" y="-34.73" incLanes="" intLanes="" shape="-73.42,-34.73 -70.01,-40.15"/>
    <junction id="J3" type="dead_end" x="109.28" y="4.88" incLanes="E2_0 E2_1" intLanes="" shape="109.27,-1.52 109.28,4.88"/>

    <connection from="E0" to="E2" fromLane="0" toLane="0" via=":J1_2_0" tl="J1" linkIndex="2" dir="s" state="o"/>
    <connection from="E0" to="E2" fromLane="1" toLane="1" via=":J1_2_1" tl="J1" linkIndex="3" dir="s" state="o"/>
    <connection from="E1" to="E2" fromLane="0" toLane="0" via=":J1_0_0" tl="J1" linkIndex="0" dir="s" state="O"/>
    <connection from="E1" to="E2" fromLane="1" toLane="1" via=":J1_0_1" tl="J1" linkIndex="1" dir="s" state="O"/>

    <connection from=":J1_0" to="E2" fromLane="0" toLane="0" dir="s" state="M"/>
    <connection from=":J1_0" to="E2" fromLane="1" toLane="1" dir="s" state="M"/>
    <connection from=":J1_2" to="E2" fromLane="0" toLane="0" dir="s" state="M"/>
    <connection from=":J1_2" to="E2" fromLane="1" toLane="1" dir="s" state="M"/>

</net>
